/*---------------------------------------------------------------------------*\
| =========                 |                                                 |
| \\      /  F ield         | OpenFOAM: The Open Source CFD Toolbox           |
|  \\    /   O peration     | Version:  2.2.2                                 |
|   \\  /    A nd           | Web:      www.OpenFOAM.org                      |
|    \\/     M anipulation  |                                                 |
\*---------------------------------------------------------------------------*/
Build  : 2.2.2-9739c53ec43f
Exec   : blockMesh -case ./poiseuille
Date   : Oct 29 2015
Time   : 17:14:30
Host   : "ubuntu12"
PID    : 16155
Case   : ./poiseuille
nProcs : 1
sigFpe : Enabling floating point exception trapping (FOAM_SIGFPE).
fileModificationChecking : Monitoring run-time modified files using timeStampMaster
allowSystemOperations : Disallowing user-supplied system call operations

// * * * * * * * * * * * * * * * * * * * * * * * * * * * * * * * * * * * * * //
Create time

Creating block mesh from
    "./poiseuille/constant/polyMesh/blockMeshDict"
Creating curved edges
Creating topology blocks
Creating topology patches

Creating block mesh topology

Check topology

	Basic statistics
		Number of internal faces : 0
		Number of boundary faces : 6
		Number of defined boundary faces : 6
		Number of undefined boundary faces : 0
	Checking patch -> block consistency

Creating block offsets
Creating merge list .

Creating polyMesh from blockMesh
Creating patches
Creating cells
Creating points with scale 1

Writing polyMesh
----------------
Mesh Information
----------------
  boundingBox: (0 0 0) (0.02 0.001 0.1)
  nPoints: 110
  nCells: 40
  nFaces: 174
  nInternalFaces: 66
----------------
Patches
----------------
  patch 0 (start: 66 size: 20) name: boundary2
  patch 1 (start: 86 size: 4) name: boundary0
  patch 2 (start: 90 size: 4) name: boundary1
  patch 3 (start: 94 size: 80) name: boundary3

End

